<?xml version="1.0" encoding="UTF-8"?>

<!-- generated on 2022-02-07 18:27:37 by Eclipse SUMO netedit Version 1.9.2
<configuration xmlns:xsi="http://www.w3.org/2001/XMLSchema-instance" xsi:noNamespaceSchemaLocation="http://sumo.dlr.de/xsd/netconvertConfiguration.xsd">

    <input>
        <sumo-net-file value="C:\test%20SUMO\traciTests\keurGorgui.net.xml"/>
    </input>

    <output>
        <output-file value="C:\test%20SUMO\traciTests\keurGorgui.net.xml"/>
    </output>

    <processing>
        <geometry.min-radius.fix.railways value="false"/>
        <geometry.max-grade.fix value="false"/>
        <offset.disable-normalization value="true"/>
        <lefthand value="false"/>
    </processing>

    <junctions>
        <no-turnarounds value="true"/>
        <junctions.corner-detail value="5"/>
        <junctions.limit-turn-speed value="5.5"/>
        <rectangular-lane-cut value="false"/>
    </junctions>

    <pedestrian>
        <walkingareas value="false"/>
    </pedestrian>

    <report>
        <aggregate-warnings value="5"/>
    </report>

</configuration>
-->

<net version="1.9" junctionCornerDetail="5" limitTurnSpeed="5.50" xmlns:xsi="http://www.w3.org/2001/XMLSchema-instance" xsi:noNamespaceSchemaLocation="http://sumo.dlr.de/xsd/net_file.xsd">

    <location netOffset="0.00,0.00" convBoundary="-87.74,-58.78,344.21,107.73" origBoundary="-10000000000.00,-10000000000.00,10000000000.00,10000000000.00" projParameter="!"/>

    <edge id=":gneJ22_0" function="internal">
        <lane id=":gneJ22_0_0" index="0" speed="13.89" length="19.74" shape="-5.98,32.12 -25.72,32.45"/>
        <lane id=":gneJ22_0_1" index="1" speed="13.89" length="19.74" shape="-6.03,28.92 -25.77,29.25"/>
    </edge>
    <edge id=":gneJ22_2" function="internal">
        <lane id=":gneJ22_2_0" index="0" speed="13.89" length="19.73" shape="-6.69,24.70 -10.31,25.99 -14.35,27.45 -19.33,28.67 -25.77,29.25"/>
    </edge>
    <edge id=":gneJ30_0" function="internal">
        <lane id=":gneJ30_0_0" index="0" speed="13.89" length="13.24" shape="-26.76,37.87 -13.84,37.60"/>
        <lane id=":gneJ30_0_1" index="1" speed="13.89" length="13.24" shape="-27.16,41.08 -13.61,40.80"/>
    </edge>
    <edge id=":gneJ34_0" function="internal">
        <lane id=":gneJ34_0_0" index="0" speed="13.89" length="20.05" shape="231.57,28.20 211.45,28.48"/>
        <lane id=":gneJ34_0_1" index="1" speed="13.89" length="20.05" shape="231.38,25.00 211.40,25.28"/>
    </edge>
    <edge id=":gneJ41_0" function="internal">
        <lane id=":gneJ41_0_0" index="0" speed="11.43" length="15.24" shape="103.92,15.07 109.06,13.16 112.91,11.25 115.48,9.36 116.75,7.49"/>
        <lane id=":gneJ41_0_1" index="1" speed="12.15" length="17.31" shape="103.92,15.07 110.68,12.74 115.58,10.86 118.62,9.42 119.81,8.43"/>
    </edge>
    <edge id=":gneJ41_2" function="internal">
        <lane id=":gneJ41_2_0" index="0" speed="13.89" length="18.43" shape="103.92,15.07 109.49,13.66 114.58,13.29 119.20,13.96 123.35,15.67"/>
        <lane id=":gneJ41_2_1" index="1" speed="12.84" length="18.43" shape="105.40,17.95 110.09,16.76 114.38,16.45 118.27,17.01 121.76,18.45"/>
    </edge>
    <edge id=":gneJ42_0" function="internal">
        <lane id=":gneJ42_0_0" index="0" speed="11.64" length="19.87" shape="115.72,52.17 111.17,52.64 106.58,51.36 101.93,48.32 97.24,43.53"/>
        <lane id=":gneJ42_0_1" index="1" speed="10.70" length="19.87" shape="115.52,48.89 111.64,49.31 107.76,48.27 103.86,45.76 99.94,41.78"/>
    </edge>
    <edge id=":gneJ42_2" function="internal">
        <lane id=":gneJ42_2_0" index="0" allow="private emergency authority vip passenger hov taxi bus coach delivery truck trailer motorcycle moped bicycle evehicle" speed="10.00" length="12.59" shape="101.67,54.85 101.89,52.50 101.23,49.82 99.67,46.83 97.24,43.53"/>
        <lane id=":gneJ42_2_1" index="1" allow="private emergency authority vip passenger hov taxi bus coach delivery truck trailer motorcycle moped bicycle evehicle" speed="11.00" length="15.37" shape="104.73,55.78 105.12,52.63 104.45,49.25 102.72,45.64 99.94,41.78"/>
    </edge>
    <edge id=":gneJ44_0" function="internal">
        <lane id=":gneJ44_0_0" index="0" speed="13.89" length="0.10" shape="25.63,46.64 25.56,46.64"/>
    </edge>
    <edge id=":gneJ46_0" function="internal">
        <lane id=":gneJ46_0_0" index="0" speed="13.89" length="0.30" shape="169.64,19.35 169.94,19.37"/>
    </edge>
    <edge id=":gneJ50_0" function="internal">
        <lane id=":gneJ50_0_0" index="0" speed="13.27" length="9.26" shape="132.83,45.49 130.11,45.82 128.24,46.24 126.56,47.09 124.39,48.72"/>
    </edge>
    <edge id=":gneJ50_1" function="internal">
        <lane id=":gneJ50_1_0" index="0" speed="13.89" length="9.79" shape="130.77,41.44 129.32,43.94 128.12,45.53 126.65,46.90 124.39,48.72"/>
        <lane id=":gneJ50_1_1" index="1" speed="13.89" length="9.79" shape="128.58,38.79 127.15,41.32 126.01,42.96 124.61,44.38 122.38,46.23"/>
    </edge>
    <edge id=":gneJ53_0" function="internal">
        <lane id=":gneJ53_0_0" index="0" speed="13.89" length="3.01" shape="217.92,33.45 220.96,33.40"/>
        <lane id=":gneJ53_0_1" index="1" speed="13.89" length="3.01" shape="218.04,36.65 221.01,36.60"/>
    </edge>

    <edge id="gneE0" from="gneJ0" to="gneJ30" priority="-1">
        <lane id="gneE0_0" index="0" speed="13.89" length="60.59" shape="-87.57,39.14 -26.76,37.87"/>
        <lane id="gneE0_1" index="1" speed="13.89" length="60.59" shape="-87.50,42.34 -27.16,41.08"/>
    </edge>
    <edge id="gneE0.72" from="gneJ30" to="gneJ53" priority="-1">
        <lane id="gneE0.72_0" index="0" speed="13.89" length="231.74" shape="-13.84,37.60 217.92,33.45"/>
        <lane id="gneE0.72_1" index="1" speed="13.89" length="231.74" shape="-13.61,40.80 218.04,36.65"/>
    </edge>
    <edge id="gneE0.72.234" from="gneJ53" to="gneJ52" priority="-1">
        <lane id="gneE0.72.234_0" index="0" speed="13.89" length="123.19" shape="220.96,33.40 344.12,31.19"/>
        <lane id="gneE0.72.234_1" index="1" speed="13.89" length="123.19" shape="221.01,36.60 344.18,34.39"/>
    </edge>
    <edge id="gneE1" from="gneJ2" to="gneJ34" priority="-1">
        <lane id="gneE1_0" index="0" speed="13.89" length="112.73" shape="344.22,26.66 231.57,28.20"/>
        <lane id="gneE1_1" index="1" speed="13.89" length="112.73" shape="344.17,23.46 231.38,25.00"/>
    </edge>
    <edge id="gneE1.139" from="gneJ34" to="gneJ22" priority="-1">
        <lane id="gneE1.139_0" index="0" speed="13.89" length="217.46" shape="211.45,28.48 -5.98,32.12"/>
        <lane id="gneE1.139_1" index="1" speed="13.89" length="217.46" shape="211.40,25.28 -6.03,28.92"/>
    </edge>
    <edge id="gneE1.374" from="gneJ22" to="gneJ3" priority="-1">
        <lane id="gneE1.374_0" index="0" speed="13.89" length="61.95" shape="-25.72,32.45 -87.66,33.48"/>
        <lane id="gneE1.374_1" index="1" speed="13.89" length="61.95" shape="-25.77,29.25 -87.71,30.28"/>
    </edge>
    <edge id="gneE15.44" from="gneJ29" to="gneJ44" priority="-1">
        <lane id="gneE15.44_0" index="0" speed="13.89" length="49.20" shape="74.82,47.63 25.63,46.64"/>
    </edge>
    <edge id="gneE15.78" from="gneJ44" to="gneJ30" priority="-1">
        <lane id="gneE15.78_0" index="0" speed="13.89" length="39.01" shape="25.56,46.64 -13.37,44.16"/>
    </edge>
    <edge id="gneE16.28" from="gneJ41" to="gneJ46" priority="-1">
        <lane id="gneE16.28_0" index="0" speed="13.89" length="47.06" shape="122.65,16.89 169.64,19.35"/>
    </edge>
    <edge id="gneE16.56" from="gneJ46" to="gneJ34" priority="-1">
        <lane id="gneE16.56_0" index="0" speed="13.89" length="41.49" shape="169.94,19.37 211.35,21.95"/>
    </edge>
    <edge id="gneE2" from="gneJ4" to="gneJ42" priority="-1">
        <lane id="gneE2_0" index="0" allow="private emergency authority vip passenger hov taxi bus coach delivery truck trailer motorcycle moped bicycle evehicle" speed="13.89" length="53.78" shape="86.14,106.34 101.67,54.85"/>
        <lane id="gneE2_1" index="1" allow="private emergency authority vip passenger hov taxi bus coach delivery truck trailer motorcycle moped bicycle evehicle" speed="13.89" length="53.78" shape="89.21,107.27 104.73,55.78"/>
    </edge>
    <edge id="gneE2.158" from="gneJ41" to="gneJ5" priority="-1">
        <lane id="gneE2.158_0" index="0" speed="13.89" length="71.47" shape="116.75,7.49 139.48,-60.31"/>
        <lane id="gneE2.158_1" index="1" speed="13.89" length="71.47" shape="119.81,8.43 142.51,-59.29"/>
    </edge>
    <edge id="gneE23" from="gneJ42" to="gneJ41" priority="-1" shape="109.10,46.84 103.98,44.13 100.27,39.67 98.52,34.15 99.00,28.37 101.64,23.21 106.03,19.43 111.53,17.60 118.20,18.26">
        <lane id="gneE23_0" index="0" speed="13.89" length="30.32" shape="97.24,43.53 95.98,42.02 93.66,34.70 94.29,27.03 97.80,20.19 103.62,15.17 103.92,15.07"/>
        <lane id="gneE23_1" index="1" speed="13.89" length="30.32" shape="99.94,41.78 98.84,40.45 96.90,34.33 97.43,27.92 100.36,22.20 105.23,18.01 105.40,17.95"/>
    </edge>
    <edge id="gneE24" from="gneJ41" to="gneJ50" priority="-1" shape="118.20,18.26 123.23,21.13 126.81,25.69 128.38,31.27 127.72,37.03 124.93,42.11 120.96,45.31">
        <lane id="gneE24_0" index="0" speed="13.89" length="26.80" shape="123.35,15.67 126.43,17.43 131.17,23.47 133.26,30.88 132.38,38.51 130.77,41.44"/>
        <lane id="gneE24_1" index="1" speed="13.89" length="26.80" shape="121.76,18.45 124.30,19.90 128.26,24.95 130.01,31.14 129.27,37.52 128.58,38.79"/>
    </edge>
    <edge id="gneE24.34" from="gneJ50" to="gneJ42" priority="-1" shape="120.96,45.31 120.42,45.75 114.87,47.41 109.10,46.84">
        <lane id="gneE24.34_0" index="0" speed="13.89" length="8.45" shape="124.39,48.72 122.70,50.08 115.72,52.17"/>
        <lane id="gneE24.34_1" index="1" speed="13.89" length="8.45" shape="122.38,46.23 121.18,47.19 115.52,48.89"/>
    </edge>
    <edge id="gneE3.129.11" from="gneJ53" to="gneJ50" priority="-1" shape="219.56,38.22 162.75,40.25 120.96,45.31">
        <lane id="gneE3.129.11_0" index="0" speed="13.89" length="85.58" shape="218.15,39.87 162.88,41.85 132.83,45.49"/>
    </edge>
    <edge id="gneE4.230" from="gneJ49" to="gneJ22" priority="-1">
        <lane id="gneE4.230_0" index="0" speed="13.89" length="30.54" shape="22.55,15.88 -6.69,24.70"/>
    </edge>

    <junction id="gneJ0" type="dead_end" x="-87.47" y="43.94" incLanes="" intLanes="" shape="-87.47,43.94 -87.60,37.54"/>
    <junction id="gneJ2" type="dead_end" x="344.15" y="21.86" incLanes="" intLanes="" shape="344.15,21.86 344.24,28.26"/>
    <junction id="gneJ22" type="priority" x="-21.80" y="27.58" incLanes="gneE1.139_0 gneE1.139_1 gneE4.230_0" intLanes=":gneJ22_0_0 :gneJ22_0_1 :gneJ22_2_0" shape="-5.95,33.72 -6.06,27.32 -6.23,26.23 -7.15,23.17 -11.06,24.45 -13.94,25.52 -16.32,26.38 -18.74,27.03 -21.73,27.45 -25.80,27.65 -25.69,34.05">
        <request index="0" response="000" foes="100" cont="0"/>
        <request index="1" response="000" foes="100" cont="0"/>
        <request index="2" response="011" foes="011" cont="0"/>
    </junction>
    <junction id="gneJ29" type="dead_end" x="74.85" y="46.03" incLanes="" intLanes="" shape="74.85,46.03 74.79,49.23"/>
    <junction id="gneJ3" type="dead_end" x="-87.74" y="28.68" incLanes="gneE1.374_0 gneE1.374_1" intLanes="" shape="-87.63,35.08 -87.74,28.68"/>
    <junction id="gneJ30" type="priority" x="-15.35" y="42.43" incLanes="gneE15.78_0 gneE0_0 gneE0_1" intLanes=":gneJ30_0_0 :gneJ30_0_1" shape="-13.28,45.45 -13.95,36.00 -26.60,36.54 -27.39,42.93" customShape="1">
        <request index="0" response="00" foes="00" cont="0"/>
        <request index="1" response="00" foes="00" cont="0"/>
    </junction>
    <junction id="gneJ34" type="priority" x="212.98" y="23.65" incLanes="gneE1_0 gneE1_1 gneE16.56_0" intLanes=":gneJ34_0_0 :gneJ34_0_1" shape="231.65,29.56 231.31,23.86 211.32,20.31 211.47,30.08" customShape="1">
        <request index="0" response="00" foes="00" cont="0"/>
        <request index="1" response="00" foes="00" cont="0"/>
    </junction>
    <junction id="gneJ4" type="dead_end" x="90.74" y="107.73" incLanes="" intLanes="" shape="90.74,107.73 84.61,105.88"/>
    <junction id="gneJ41" type="priority" x="118.20" y="18.26" incLanes="gneE23_0 gneE23_1" intLanes=":gneJ41_0_0 :gneJ41_0_1 :gneJ41_2_0 :gneJ41_2_1" shape="120.97,19.84 124.14,14.28 121.73,12.43 120.99,8.80 115.22,7.02 114.27,8.78 108.91,11.79 103.43,14.13 106.11,19.34 112.60,17.08 116.16,17.47 119.01,18.85" customShape="1">
        <request index="0" response="0000" foes="0000" cont="0"/>
        <request index="1" response="0000" foes="0000" cont="0"/>
        <request index="2" response="0000" foes="0000" cont="0"/>
        <request index="3" response="0000" foes="0000" cont="0"/>
    </junction>
    <junction id="gneJ42" type="priority" x="109.10" y="46.84" incLanes="gneE24.34_0 gneE24.34_1 gneE2_0 gneE2_1" intLanes=":gneJ42_0_0 :gneJ42_0_1 :gneJ42_2_0 :gneJ42_2_1" shape="115.82,53.74 115.41,47.09 108.83,46.64 105.20,45.05 101.66,40.67 96.19,44.21 99.00,47.18 100.09,51.02 100.14,54.39 106.27,56.24 109.46,53.40" customShape="1">
        <request index="0" response="0000" foes="1100" cont="0"/>
        <request index="1" response="0000" foes="1000" cont="0"/>
        <request index="2" response="0001" foes="0001" cont="0"/>
        <request index="3" response="0011" foes="0011" cont="0"/>
    </junction>
    <junction id="gneJ44" type="priority" x="25.66" y="45.04" incLanes="gneE15.44_0" intLanes=":gneJ44_0_0" shape="25.66,48.24 25.73,45.04 25.59,45.04 25.39,48.23">
        <request index="0" response="0" foes="0" cont="0"/>
    </junction>
    <junction id="gneJ46" type="priority" x="169.70" y="20.96" incLanes="gneE16.28_0" intLanes=":gneJ46_0_0" shape="169.84,20.97 170.04,17.77 169.73,17.76 169.56,20.95">
        <request index="0" response="0" foes="0" cont="0"/>
    </junction>
    <junction id="gneJ49" type="dead_end" x="22.09" y="14.35" incLanes="" intLanes="" shape="22.09,14.35 23.01,17.41"/>
    <junction id="gneJ5" type="dead_end" x="144.03" y="-58.78" incLanes="gneE2.158_0 gneE2.158_1" intLanes="" shape="137.96,-60.81 144.03,-58.78"/>
    <junction id="gneJ50" type="priority" x="120.96" y="45.31" incLanes="gneE3.129.11_0 gneE24_0 gneE24_1" intLanes=":gneJ50_0_0 :gneJ50_1_0 :gneJ50_1_1" shape="133.02,47.08 132.64,43.90 131.89,43.85 131.70,43.71 131.64,43.48 131.69,43.16 131.87,42.76 127.48,37.47 126.48,39.29 125.70,40.63 124.96,41.68 124.11,42.63 122.97,43.67 121.37,44.98 125.39,49.96 127.88,48.18 128.88,47.74 129.95,47.47 131.27,47.28">
        <request index="0" response="010" foes="010" cont="0"/>
        <request index="1" response="000" foes="001" cont="0"/>
        <request index="2" response="000" foes="000" cont="0"/>
    </junction>
    <junction id="gneJ52" type="dead_end" x="344.21" y="35.99" incLanes="gneE0.72.234_0 gneE0.72.234_1" intLanes="" shape="344.10,29.59 344.21,35.99"/>
    <junction id="gneJ53" type="priority" x="219.56" y="38.22" incLanes="gneE0.72_0 gneE0.72_1" intLanes=":gneJ53_0_0 :gneJ53_0_1" shape="221.04,38.20 220.93,31.80 217.87,31.85 218.21,41.47">
        <request index="0" response="00" foes="00" cont="0"/>
        <request index="1" response="00" foes="00" cont="0"/>
    </junction>

    <connection from="gneE0" to="gneE0.72" fromLane="0" toLane="0" via=":gneJ30_0_0" dir="s" state="M"/>
    <connection from="gneE0" to="gneE0.72" fromLane="1" toLane="1" via=":gneJ30_0_1" dir="s" state="M"/>
    <connection from="gneE0.72" to="gneE0.72.234" fromLane="0" toLane="0" via=":gneJ53_0_0" dir="s" state="M"/>
    <connection from="gneE0.72" to="gneE0.72.234" fromLane="1" toLane="1" via=":gneJ53_0_1" dir="s" state="M"/>
    <connection from="gneE1" to="gneE1.139" fromLane="0" toLane="0" via=":gneJ34_0_0" dir="s" state="M"/>
    <connection from="gneE1" to="gneE1.139" fromLane="1" toLane="1" via=":gneJ34_0_1" dir="s" state="M"/>
    <connection from="gneE1.139" to="gneE1.374" fromLane="0" toLane="0" via=":gneJ22_0_0" dir="s" state="M"/>
    <connection from="gneE1.139" to="gneE1.374" fromLane="1" toLane="1" via=":gneJ22_0_1" dir="s" state="M"/>
    <connection from="gneE15.44" to="gneE15.78" fromLane="0" toLane="0" via=":gneJ44_0_0" dir="s" state="M"/>
    <connection from="gneE16.28" to="gneE16.56" fromLane="0" toLane="0" via=":gneJ46_0_0" dir="s" state="M"/>
    <connection from="gneE2" to="gneE23" fromLane="0" toLane="0" via=":gneJ42_2_0" dir="r" state="m" visibility="9.00"/>
    <connection from="gneE2" to="gneE23" fromLane="1" toLane="1" via=":gneJ42_2_1" dir="r" state="m" visibility="9.00"/>
    <connection from="gneE23" to="gneE2.158" fromLane="0" toLane="0" via=":gneJ41_0_0" dir="r" state="M"/>
    <connection from="gneE23" to="gneE2.158" fromLane="0" toLane="1" via=":gneJ41_0_1" dir="r" state="M"/>
    <connection from="gneE23" to="gneE24" fromLane="0" toLane="0" via=":gneJ41_2_0" dir="s" state="M"/>
    <connection from="gneE23" to="gneE24" fromLane="1" toLane="1" via=":gneJ41_2_1" dir="s" state="M"/>
    <connection from="gneE24" to="gneE24.34" fromLane="0" toLane="0" via=":gneJ50_1_0" dir="s" state="M"/>
    <connection from="gneE24" to="gneE24.34" fromLane="1" toLane="1" via=":gneJ50_1_1" dir="s" state="M"/>
    <connection from="gneE24.34" to="gneE23" fromLane="0" toLane="0" via=":gneJ42_0_0" dir="s" state="M"/>
    <connection from="gneE24.34" to="gneE23" fromLane="1" toLane="1" via=":gneJ42_0_1" dir="s" state="M"/>
    <connection from="gneE3.129.11" to="gneE24.34" fromLane="0" toLane="0" via=":gneJ50_0_0" dir="s" state="m" visibility="9.00"/>
    <connection from="gneE4.230" to="gneE1.374" fromLane="0" toLane="1" via=":gneJ22_2_0" dir="s" state="m"/>

    <connection from=":gneJ22_0" to="gneE1.374" fromLane="0" toLane="0" dir="s" state="M"/>
    <connection from=":gneJ22_0" to="gneE1.374" fromLane="1" toLane="1" dir="s" state="M"/>
    <connection from=":gneJ22_2" to="gneE1.374" fromLane="0" toLane="1" dir="s" state="M"/>
    <connection from=":gneJ30_0" to="gneE0.72" fromLane="0" toLane="0" dir="s" state="M"/>
    <connection from=":gneJ30_0" to="gneE0.72" fromLane="1" toLane="1" dir="s" state="M"/>
    <connection from=":gneJ34_0" to="gneE1.139" fromLane="0" toLane="0" dir="s" state="M"/>
    <connection from=":gneJ34_0" to="gneE1.139" fromLane="1" toLane="1" dir="s" state="M"/>
    <connection from=":gneJ41_0" to="gneE2.158" fromLane="0" toLane="0" dir="r" state="M"/>
    <connection from=":gneJ41_0" to="gneE2.158" fromLane="1" toLane="1" dir="r" state="M"/>
    <connection from=":gneJ41_2" to="gneE24" fromLane="0" toLane="0" dir="s" state="M"/>
    <connection from=":gneJ41_2" to="gneE24" fromLane="1" toLane="1" dir="s" state="M"/>
    <connection from=":gneJ42_0" to="gneE23" fromLane="0" toLane="0" dir="s" state="M"/>
    <connection from=":gneJ42_0" to="gneE23" fromLane="1" toLane="1" dir="s" state="M"/>
    <connection from=":gneJ42_2" to="gneE23" fromLane="0" toLane="0" dir="r" state="M"/>
    <connection from=":gneJ42_2" to="gneE23" fromLane="1" toLane="1" dir="r" state="M"/>
    <connection from=":gneJ44_0" to="gneE15.78" fromLane="0" toLane="0" dir="s" state="M"/>
    <connection from=":gneJ46_0" to="gneE16.56" fromLane="0" toLane="0" dir="s" state="M"/>
    <connection from=":gneJ50_0" to="gneE24.34" fromLane="0" toLane="0" dir="s" state="M"/>
    <connection from=":gneJ50_1" to="gneE24.34" fromLane="0" toLane="0" dir="s" state="M"/>
    <connection from=":gneJ50_1" to="gneE24.34" fromLane="1" toLane="1" dir="s" state="M"/>
    <connection from=":gneJ53_0" to="gneE0.72.234" fromLane="0" toLane="0" dir="s" state="M"/>
    <connection from=":gneJ53_0" to="gneE0.72.234" fromLane="1" toLane="1" dir="s" state="M"/>

    <roundabout nodes="gneJ41 gneJ42 gneJ50" edges="gneE23 gneE24 gneE24.34"/>

</net>
