<routes xmlns:xsi="http://www.w3.org/2001/XMLSchema-instance" xsi:noNamespaceSchemaLocation="http://sumo.dlr.de/xsd/routes_file.xsd">
<vType id="DakarDemDikk" accel="2.6" decel="4" sigma="0" length="12" width="2.6" minGap="2.5" maxSpeed="20" color="240,230,140" guiShape="bus" personCapacity="85" emissionClass="HBEFA3/HDV_D_EU4" laneChangeModel="LC2013" lcStrategic="1" lcSpeedGain="1" lcOvertakeRight="1" lcOpposite="0"/>
<vType id="TATA" accel="2" decel="4" sigma="0.3" length="9" minGap="1.5" width="2.4" maxSpeed="17" color="255,255,255"   guiShape="bus" personCapacity="42"  emissionClass="HBEFA3/HDV_D_EU4" laneChangeModel="LC2013" lcStrategic="3" lcSpeedGain="3" lcOvertakeRight="3" lcOpposite="3" lcImpatience="0.1" />
<vType id="Taxi"  accel="2.6" decel="4.5" sigma="0.4" length="4.5"  minGap="1" maxSpeed="20" color="255,255,0" guiShape="passenger" personCapacity="5"  emissionClass="HBEFA3/PC_D_EU3" laneChangeModel="LC2013" lcStrategic="5"  lcSpeedGain="5" lcOvertakeRight="0.5" lcOpposite="5" lcImpatience="0.5" />
<vType id="CarRapide" accel="1.2" decel="3.5" sigma="0.6" length="7" width="2.1" minGap="1" maxSpeed="14" color="255,127,80" guiShape="bus" personCapacity="28" emissionClass="HBEFA3/LDV_G_EU1" laneChangeModel="LC2013" lcStrategic="3"  lcSpeedGain="3" lcOvertakeRight="0.1" lcOpposite="3" lcImpatience="1"/>
<vType id="Particulier"  accel="3.5" color="0,0,255" decel="4.5" guiShape="passenger"  length="4.5" maxSpeed="25" sigma="0.1" minGap="1.5" personCapacity="5" emissionClass="HBEFA3/PC" laneChangeModel="LC2013" lcStrategic="2"  lcSpeedGain="2" lcOvertakeRight="0.3" lcOpposite="3"/>

<route edges="gneE0 gneE10 gneE8.45 gneE7 gneE7.47 gneE2.120" color="yellow" id="cices_citeKG"/>    
<route edges="gneE0 gneE0.81 gneE0.329" color="green" id="cices_fann"/>    
<route edges="gneE0 gneE10 gneE8.45 -gneE2.115" color="yellow" id="cices_mermoz"/>    
<route edges="-gneE2 gneE11 gneE1.309" color="blue" id="citeKG_cices"/>    
<route edges="-gneE2 gneE8 gneE8.45 gneE12 gneE0.329" color="yellow" id="citeKG_fann"/>    
<route edges="-gneE2 gneE8 gneE8.45 -gneE2.115" color="magenta" id="citeKG_mermoz"/>    
<route edges="gneE1 gneE1.30 gneE1.309" color="cyan" id="fann_cices"/>    
<route edges="gneE1 gneE9 gneE7.47 gneE2.120" color="red" id="fann_citeKG"/>    
<route edges="gneE1 gneE9 gneE7.47 gneE8 gneE8.45 -gneE2.115" color="yellow" id="fann_mermoz"/>    
<route edges="gneE2 gneE7 gneE7.47 gneE11 gneE1.309" color="yellow" id="mermoz_cices"/>    
<route edges="gneE2 gneE7 gneE7.47 gneE2.120" color="yellow" id="mermoz_citeKG"/>    
<route edges="gneE2 gneE12 gneE0.329" color="yellow" id="mermoz_fann"/>    
<route edges="gneE0 gneE10 gneE8.45 gneE12 gneE0.329" color="255,114,0" id="cices_fann_DDD"/>    
<route edges="gneE1 gneE9 gneE7.47 gneE11 gneE1.309" color="255,78,0" id="fann_cices_DDD"/>
<route edges="gneE13 gneE13.25 gneE13.43" color="255,70,0" id="pietons_citeKG"/>

<vehicle id="v1" type="TATA" route="cices_fann" depart="1.0" departSpeed="speedLimit" personNumber="38">
	<stop busStop="busStop_1" duration="17" parking="false"/>
</vehicle>
<vehicle id="v87" type="Taxi" route="cices_fann" depart="1.0" departSpeed="speedLimit"/>
<vehicle id="v504" type="CarRapide" route="cices_fann" depart="1.0" departSpeed="speedLimit" personNumber="25">
	<stop busStop="busStop_1" duration="11" parking="false"/>
</vehicle>
<vehicle id="v587" type="Particulier" route="cices_fann" depart="1.0" departSpeed="speedLimit" personNumber="2"/>
<vehicle id="v4017" type="DakarDemDikk" route="cices_fann_DDD" depart="1.0" departSpeed="speedLimit" personNumber="78">
	<stop busStop="busStop_2" duration="6" parking="true"/>
	<stop busStop="busStop_3" duration="13" parking="true"/>
</vehicle>
<vehicle id="v4039" type="Taxi" route="cices_citeKG" depart="1.0" departSpeed="speedLimit" personNumber="2">
</vehicle>
<vehicle id="v4081" type="Particulier" route="cices_citeKG" depart="1.0" departSpeed="speedLimit" personNumber="2"/>
<vehicle id="v4331" type="Taxi" route="cices_mermoz" depart="1.0" departSpeed="speedLimit" personNumber="1">
	<stop busStop="busStop_2" duration="5" parking="true"/>
</vehicle>
<vehicle id="v4348" type="Particulier" route="cices_mermoz" depart="1.0" departSpeed="speedLimit" personNumber="2"/>
<vehicle id="v4485" type="Taxi" route="citeKG_cices" depart="1.0" departSpeed="speedLimit"/>
<vehicle id="v4488" type="Particulier" route="citeKG_cices" depart="1.0" departSpeed="speedLimit" personNumber="2"/>
<vehicle id="v4509" type="Taxi" route="citeKG_fann" depart="1.0" departSpeed="speedLimit"/>
<vehicle id="v4541" type="Particulier" route="citeKG_fann" depart="1.0" departSpeed="speedLimit" personNumber="1"/>
<vehicle id="v4804" type="Taxi" route="citeKG_mermoz" depart="1.0" departSpeed="speedLimit"/>
<vehicle id="v4810" type="Particulier" route="citeKG_mermoz" depart="1.0" departSpeed="speedLimit" personNumber="2"/>
<vehicle id="v4856" type="TATA" route="fann_cices" depart="1.0" departSpeed="speedLimit" personNumber="40">
</vehicle>
<vehicle id="v4868" type="Taxi" route="fann_cices" depart="1.0" departSpeed="speedLimit"/>
<vehicle id="v4887" type="CarRapide" route="fann_cices" depart="1.0" departSpeed="speedLimit" personNumber="24">
	<stop busStop="busStop_6" duration="19" parking="false"/>
</vehicle>
<vehicle id="v4900" type="Particulier" route="fann_cices" depart="1.0" departSpeed="speedLimit" personNumber="2"/>
<vehicle id="v5005" type="DakarDemDikk" route="fann_cices_DDD" depart="1.0" departSpeed="speedLimit" personNumber="77">
	<stop busStop="busStop_4" duration="14" parking="true"/>
	<stop busStop="busStop_5" duration="15" parking="true"/>
</vehicle>
<vehicle id="v5008" type="Taxi" route="fann_citeKG" depart="1.0" departSpeed="speedLimit" personNumber="2">
	<stop busStop="busStop_4" duration="3" parking="true"/>
</vehicle>
<vehicle id="v5012" type="Particulier" route="fann_citeKG" depart="1.0" departSpeed="speedLimit" personNumber="2"/>
<vehicle id="v5044" type="Taxi" route="fann_mermoz" depart="1.0" departSpeed="speedLimit" personNumber="1">
</vehicle>
<vehicle id="v5050" type="Particulier" route="fann_mermoz" depart="1.0" departSpeed="speedLimit" personNumber="1"/>
<vehicle id="v5103" type="Taxi" route="mermoz_cices" depart="1.0" departSpeed="speedLimit"/>
<vehicle id="v5122" type="Particulier" route="mermoz_cices" depart="1.0" departSpeed="speedLimit" personNumber="1"/>
<vehicle id="v5280" type="Taxi" route="mermoz_citeKG" depart="1.0" departSpeed="speedLimit"/>
<vehicle id="v5299" type="Particulier" route="mermoz_citeKG" depart="1.0" departSpeed="speedLimit" personNumber="1"/>
<vehicle id="v5459" type="Taxi" route="mermoz_fann" depart="1.0" departSpeed="speedLimit"/>
<vehicle id="v5462" type="Particulier" route="mermoz_fann" depart="1.0" departSpeed="speedLimit" personNumber="2"/>
<vehicle id="v588" type="Particulier" route="cices_fann" depart="2.0495626822157433" departSpeed="speedLimit" personNumber="2"/>
<vehicle id="v589" type="Particulier" route="cices_fann" depart="3.0991253644314867" departSpeed="speedLimit" personNumber="2"/>
<vehicle id="v590" type="Particulier" route="cices_fann" depart="4.14868804664723" departSpeed="speedLimit" personNumber="2"/>
<vehicle id="v591" type="Particulier" route="cices_fann" depart="5.198250728862973" departSpeed="speedLimit" personNumber="2"/>
<vehicle id="v592" type="Particulier" route="cices_fann" depart="6.247813411078717" departSpeed="speedLimit" personNumber="2"/>
<vehicle id="v593" type="Particulier" route="cices_fann" depart="7.29737609329446" departSpeed="speedLimit" personNumber="1"/>
<vehicle id="v594" type="Particulier" route="cices_fann" depart="8.346938775510203" departSpeed="speedLimit" personNumber="2"/>
<vehicle id="v595" type="Particulier" route="cices_fann" depart="9.396501457725947" departSpeed="speedLimit" personNumber="2"/>
<vehicle id="v88" type="Taxi" route="cices_fann" depart="9.633093525179856" departSpeed="speedLimit"/>
<vehicle id="v596" type="Particulier" route="cices_fann" depart="10.44606413994169" departSpeed="speedLimit" personNumber="1"/>
<vehicle id="v597" type="Particulier" route="cices_fann" depart="11.495626822157433" departSpeed="speedLimit" personNumber="1"/>
<vehicle id="v598" type="Particulier" route="cices_fann" depart="12.545189504373177" departSpeed="speedLimit" personNumber="2"/>
<vehicle id="v599" type="Particulier" route="cices_fann" depart="13.59475218658892" departSpeed="speedLimit" personNumber="1"/>
<vehicle id="v600" type="Particulier" route="cices_fann" depart="14.644314868804663" departSpeed="speedLimit" personNumber="1"/>
<vehicle id="v4542" type="Particulier" route="citeKG_fann" depart="14.688212927756654" departSpeed="speedLimit" personNumber="2"/>
<vehicle id="v4082" type="Particulier" route="cices_citeKG" depart="15.4" departSpeed="speedLimit" personNumber="2"/>
<vehicle id="v601" type="Particulier" route="cices_fann" depart="15.693877551020407" departSpeed="speedLimit" personNumber="2"/>
<vehicle id="v602" type="Particulier" route="cices_fann" depart="16.74344023323615" departSpeed="speedLimit" personNumber="1"/>
<vehicle id="v603" type="Particulier" route="cices_fann" depart="17.793002915451893" departSpeed="speedLimit" personNumber="1"/>
<vehicle id="v89" type="Taxi" route="cices_fann" depart="18.26618705035971" departSpeed="speedLimit"/>
<vehicle id="v604" type="Particulier" route="cices_fann" depart="18.842565597667637" departSpeed="speedLimit" personNumber="2"/>
<vehicle id="v605" type="Particulier" route="cices_fann" depart="19.89212827988338" departSpeed="speedLimit" personNumber="1"/>
<vehicle id="v606" type="Particulier" route="cices_fann" depart="20.941690962099123" departSpeed="speedLimit" personNumber="1"/>
<vehicle id="v607" type="Particulier" route="cices_fann" depart="21.991253644314867" departSpeed="speedLimit" personNumber="2"/>
<vehicle id="v608" type="Particulier" route="cices_fann" depart="23.04081632653061" departSpeed="speedLimit" personNumber="1"/>
<vehicle id="v5300" type="Particulier" route="mermoz_citeKG" depart="23.5" departSpeed="speedLimit" personNumber="1"/>
<vehicle id="v5123" type="Particulier" route="mermoz_cices" depart="23.78481012658228" departSpeed="speedLimit" personNumber="2"/>
<vehicle id="v609" type="Particulier" route="cices_fann" depart="24.090379008746353" departSpeed="speedLimit" personNumber="2"/>
<vehicle id="v610" type="Particulier" route="cices_fann" depart="25.139941690962097" departSpeed="speedLimit" personNumber="1"/>
<vehicle id="v611" type="Particulier" route="cices_fann" depart="26.18950437317784" departSpeed="speedLimit" personNumber="2"/>
<vehicle id="v90" type="Taxi" route="cices_fann" depart="26.899280575539567" departSpeed="speedLimit"/>
<vehicle id="v612" type="Particulier" route="cices_fann" depart="27.239067055393583" departSpeed="speedLimit" personNumber="1"/>
<vehicle id="v4349" type="Particulier" route="cices_mermoz" depart="27.277372262773724" departSpeed="speedLimit" personNumber="1"/>
<vehicle id="v613" type="Particulier" route="cices_fann" depart="28.288629737609327" departSpeed="speedLimit" personNumber="1"/>
<vehicle id="v4543" type="Particulier" route="citeKG_fann" depart="28.376425855513308" departSpeed="speedLimit" personNumber="2"/>
<vehicle id="v614" type="Particulier" route="cices_fann" depart="29.33819241982507" departSpeed="speedLimit" personNumber="1"/>
<vehicle id="v4083" type="Particulier" route="cices_citeKG" depart="29.8" departSpeed="speedLimit" personNumber="2"/>
<vehicle id="v615" type="Particulier" route="cices_fann" depart="30.387755102040813" departSpeed="speedLimit" personNumber="1"/>
<vehicle id="v616" type="Particulier" route="cices_fann" depart="31.437317784256557" departSpeed="speedLimit" personNumber="2"/>
<vehicle id="v617" type="Particulier" route="cices_fann" depart="32.4868804664723" departSpeed="speedLimit" personNumber="1"/>
<vehicle id="v618" type="Particulier" route="cices_fann" depart="33.53644314868804" departSpeed="speedLimit" personNumber="2"/>
<vehicle id="v619" type="Particulier" route="cices_fann" depart="34.58600583090379" departSpeed="speedLimit" personNumber="1"/>
<vehicle id="v4901" type="Particulier" route="fann_cices" depart="35.285714285714285" departSpeed="speedLimit" personNumber="2"/>
<vehicle id="v91" type="Taxi" route="cices_fann" depart="35.53237410071942" departSpeed="speedLimit"/>
<vehicle id="v620" type="Particulier" route="cices_fann" depart="35.63556851311953" departSpeed="speedLimit" personNumber="1"/>
<vehicle id="v621" type="Particulier" route="cices_fann" depart="36.68513119533527" departSpeed="speedLimit" personNumber="1"/>
<vehicle id="v622" type="Particulier" route="cices_fann" depart="37.73469387755102" departSpeed="speedLimit" personNumber="2"/>
<vehicle id="v623" type="Particulier" route="cices_fann" depart="38.78425655976676" departSpeed="speedLimit" personNumber="1"/>
<vehicle id="v624" type="Particulier" route="cices_fann" depart="39.8338192419825" departSpeed="speedLimit" personNumber="1"/>
<vehicle id="v625" type="Particulier" route="cices_fann" depart="40.88338192419825" departSpeed="speedLimit" personNumber="1"/>
<vehicle id="v626" type="Particulier" route="cices_fann" depart="41.93294460641399" departSpeed="speedLimit" personNumber="2"/>
<vehicle id="v4544" type="Particulier" route="citeKG_fann" depart="42.06463878326996" departSpeed="speedLimit" personNumber="2"/>
<vehicle id="v2" type="TATA" route="cices_fann" depart="42.86046511627907" departSpeed="speedLimit" personNumber="42">
	<stop busStop="busStop_1" duration="19" parking="false"/>
</vehicle>
<vehicle id="v627" type="Particulier" route="cices_fann" depart="42.98250728862973" departSpeed="speedLimit" personNumber="1"/>
<vehicle id="v628" type="Particulier" route="cices_fann" depart="44.03206997084548" departSpeed="speedLimit" personNumber="1"/>
<vehicle id="v92" type="Taxi" route="cices_fann" depart="44.16546762589928" departSpeed="speedLimit"/>
<vehicle id="v4084" type="Particulier" route="cices_citeKG" depart="44.2" departSpeed="speedLimit" personNumber="1"/>
<vehicle id="v505" type="CarRapide" route="cices_fann" depart="44.373493975903614" departSpeed="speedLimit" personNumber="24">
	<stop busStop="busStop_1" duration="11" parking="false"/>
</vehicle>
<vehicle id="v629" type="Particulier" route="cices_fann" depart="45.08163265306122" departSpeed="speedLimit" personNumber="2"/>
<vehicle id="v5301" type="Particulier" route="mermoz_citeKG" depart="46.0" departSpeed="speedLimit" personNumber="1"/>
<vehicle id="v630" type="Particulier" route="cices_fann" depart="46.13119533527696" departSpeed="speedLimit" personNumber="2"/>
<vehicle id="v5124" type="Particulier" route="mermoz_cices" depart="46.56962025316456" departSpeed="speedLimit" personNumber="2"/>
<vehicle id="v631" type="Particulier" route="cices_fann" depart="47.18075801749271" departSpeed="speedLimit" personNumber="1"/>
<vehicle id="v632" type="Particulier" route="cices_fann" depart="48.23032069970845" departSpeed="speedLimit" personNumber="2"/>
<vehicle id="v633" type="Particulier" route="cices_fann" depart="49.27988338192419" departSpeed="speedLimit" personNumber="1"/>
<vehicle id="v634" type="Particulier" route="cices_fann" depart="50.32944606413994" departSpeed="speedLimit" personNumber="2"/>
<vehicle id="v635" type="Particulier" route="cices_fann" depart="51.37900874635568" departSpeed="speedLimit" personNumber="2"/>
<vehicle id="v636" type="Particulier" route="cices_fann" depart="52.42857142857142" departSpeed="speedLimit" personNumber="2"/>
<vehicle id="v93" type="Taxi" route="cices_fann" depart="52.798561151079134" departSpeed="speedLimit"/>
<vehicle id="v637" type="Particulier" route="cices_fann" depart="53.47813411078717" departSpeed="speedLimit" personNumber="2"/>
<vehicle id="v4350" type="Particulier" route="cices_mermoz" depart="53.55474452554745" departSpeed="speedLimit" personNumber="2"/>
<vehicle id="v638" type="Particulier" route="cices_fann" depart="54.52769679300291" departSpeed="speedLimit" personNumber="2"/>
<vehicle id="v639" type="Particulier" route="cices_fann" depart="55.57725947521865" departSpeed="speedLimit" personNumber="1"/>
<vehicle id="v4545" type="Particulier" route="citeKG_fann" depart="55.752851711026615" departSpeed="speedLimit" personNumber="2"/>
<vehicle id="v640" type="Particulier" route="cices_fann" depart="56.6268221574344" departSpeed="speedLimit" personNumber="1"/>
<vehicle id="v641" type="Particulier" route="cices_fann" depart="57.67638483965014" departSpeed="speedLimit" personNumber="1"/>
<vehicle id="v4085" type="Particulier" route="cices_citeKG" depart="58.6" departSpeed="speedLimit" personNumber="2"/>
<vehicle id="v642" type="Particulier" route="cices_fann" depart="58.72594752186588" departSpeed="speedLimit" personNumber="1"/>
<vehicle id="v643" type="Particulier" route="cices_fann" depart="59.77551020408163" departSpeed="speedLimit" personNumber="1"/>
<vehicle id="v644" type="Particulier" route="cices_fann" depart="60.82507288629737" departSpeed="speedLimit" personNumber="1"/>
<vehicle id="v94" type="Taxi" route="cices_fann" depart="61.43165467625899" departSpeed="speedLimit"/>
<vehicle id="v645" type="Particulier" route="cices_fann" depart="61.87463556851311" departSpeed="speedLimit" personNumber="2"/>
<vehicle id="v646" type="Particulier" route="cices_fann" depart="62.92419825072886" departSpeed="speedLimit" personNumber="1"/>
<vehicle id="v647" type="Particulier" route="cices_fann" depart="63.9737609329446" departSpeed="speedLimit" personNumber="2"/>
<vehicle id="v648" type="Particulier" route="cices_fann" depart="65.02332361516034" departSpeed="speedLimit" personNumber="2"/>
<vehicle id="v649" type="Particulier" route="cices_fann" depart="66.07288629737609" departSpeed="speedLimit" personNumber="2"/>
<vehicle id="v650" type="Particulier" route="cices_fann" depart="67.12244897959184" departSpeed="speedLimit" personNumber="1"/>
<vehicle id="v651" type="Particulier" route="cices_fann" depart="68.17201166180757" departSpeed="speedLimit" personNumber="2"/>
<vehicle id="v5302" type="Particulier" route="mermoz_citeKG" depart="68.5" departSpeed="speedLimit" personNumber="1"/>
<vehicle id="v5051" type="Particulier" route="fann_mermoz" depart="68.9245283018868" departSpeed="speedLimit" personNumber="2"/>
<vehicle id="v652" type="Particulier" route="cices_fann" depart="69.22157434402331" departSpeed="speedLimit" personNumber="1"/>
<vehicle id="v5125" type="Particulier" route="mermoz_cices" depart="69.35443037974684" departSpeed="speedLimit" personNumber="2"/>
<vehicle id="v4546" type="Particulier" route="citeKG_fann" depart="69.44106463878327" departSpeed="speedLimit" personNumber="1"/>
<vehicle id="v4902" type="Particulier" route="fann_cices" depart="69.57142857142857" departSpeed="speedLimit" personNumber="1"/>
<vehicle id="v95" type="Taxi" route="cices_fann" depart="70.06474820143885" departSpeed="speedLimit"/>
<vehicle id="v653" type="Particulier" route="cices_fann" depart="70.27113702623906" departSpeed="speedLimit" personNumber="2"/>
<vehicle id="v654" type="Particulier" route="cices_fann" depart="71.32069970845481" departSpeed="speedLimit" personNumber="1"/>
<vehicle id="v655" type="Particulier" route="cices_fann" depart="72.37026239067055" departSpeed="speedLimit" personNumber="1"/>
<vehicle id="v4086" type="Particulier" route="cices_citeKG" depart="73.0" departSpeed="speedLimit" personNumber="2"/>
<vehicle id="v656" type="Particulier" route="cices_fann" depart="73.41982507288628" departSpeed="speedLimit" personNumber="2"/>
<vehicle id="v657" type="Particulier" route="cices_fann" depart="74.46938775510203" departSpeed="speedLimit" personNumber="1"/>
<vehicle id="v658" type="Particulier" route="cices_fann" depart="75.51895043731778" departSpeed="speedLimit" personNumber="1"/>
<vehicle id="v659" type="Particulier" route="cices_fann" depart="76.56851311953352" departSpeed="speedLimit" personNumber="2"/>
<vehicle id="v660" type="Particulier" route="cices_fann" depart="77.61807580174926" departSpeed="speedLimit" personNumber="2"/>
<vehicle id="v661" type="Particulier" route="cices_fann" depart="78.667638483965" departSpeed="speedLimit" personNumber="2"/>
<vehicle id="v96" type="Taxi" route="cices_fann" depart="78.6978417266187" departSpeed="speedLimit"/>
<vehicle id="v4811" type="Particulier" route="citeKG_mermoz" depart="79.26086956521739" departSpeed="speedLimit" personNumber="1"/>
<vehicle id="v662" type="Particulier" route="cices_fann" depart="79.71720116618076" departSpeed="speedLimit" personNumber="1"/>
<vehicle id="v4351" type="Particulier" route="cices_mermoz" depart="79.83211678832117" departSpeed="speedLimit" personNumber="1"/>
<vehicle id="v663" type="Particulier" route="cices_fann" depart="80.7667638483965" departSpeed="speedLimit" personNumber="1"/>
<vehicle id="v664" type="Particulier" route="cices_fann" depart="81.81632653061223" departSpeed="speedLimit" personNumber="2"/>
<vehicle id="v665" type="Particulier" route="cices_fann" depart="82.86588921282798" departSpeed="speedLimit" personNumber="2"/>
<vehicle id="v4547" type="Particulier" route="citeKG_fann" depart="83.12927756653993" departSpeed="speedLimit" personNumber="1"/>
<vehicle id="v666" type="Particulier" route="cices_fann" depart="83.91545189504373" departSpeed="speedLimit" personNumber="1"/>
<vehicle id="v3" type="TATA" route="cices_fann" depart="84.72093023255815" departSpeed="speedLimit" personNumber="42">
	<stop busStop="busStop_1" duration="16" parking="false"/>
</vehicle>
<vehicle id="v667" type="Particulier" route="cices_fann" depart="84.96501457725947" departSpeed="speedLimit" personNumber="1"/>
<vehicle id="v668" type="Particulier" route="cices_fann" depart="86.0145772594752" departSpeed="speedLimit" personNumber="1"/>
<vehicle id="v4040" type="Taxi" route="cices_citeKG" depart="86.71428571428571" departSpeed="speedLimit" personNumber="2">
</vehicle>
<vehicle id="v669" type="Particulier" route="cices_fann" depart="87.06413994169095" departSpeed="speedLimit" personNumber="1"/>
<vehicle id="v97" type="Taxi" route="cices_fann" depart="87.33093525179856" departSpeed="speedLimit"/>
<vehicle id="v4087" type="Particulier" route="cices_citeKG" depart="87.4" departSpeed="speedLimit" personNumber="1"/>
<vehicle id="v506" type="CarRapide" route="cices_fann" depart="87.74698795180723" departSpeed="speedLimit" personNumber="28">
</vehicle>
<vehicle id="v670" type="Particulier" route="cices_fann" depart="88.1137026239067" departSpeed="speedLimit" personNumber="1"/>
<vehicle id="v671" type="Particulier" route="cices_fann" depart="89.16326530612244" departSpeed="speedLimit" personNumber="2"/>
<vehicle id="v672" type="Particulier" route="cices_fann" depart="90.21282798833818" departSpeed="speedLimit" personNumber="1"/>
<vehicle id="v5303" type="Particulier" route="mermoz_citeKG" depart="91.0" departSpeed="speedLimit" personNumber="2"/>
<vehicle id="v673" type="Particulier" route="cices_fann" depart="91.26239067055393" departSpeed="speedLimit" personNumber="2"/>
<vehicle id="v5126" type="Particulier" route="mermoz_cices" depart="92.13924050632912" departSpeed="speedLimit" personNumber="1"/>
<vehicle id="v674" type="Particulier" route="cices_fann" depart="92.31195335276968" departSpeed="speedLimit" personNumber="1"/>
<vehicle id="v675" type="Particulier" route="cices_fann" depart="93.36151603498541" departSpeed="speedLimit" personNumber="2"/>
<vehicle id="v676" type="Particulier" route="cices_fann" depart="94.41107871720115" departSpeed="speedLimit" personNumber="2"/>
<vehicle id="v677" type="Particulier" route="cices_fann" depart="95.4606413994169" departSpeed="speedLimit" personNumber="2"/>
<vehicle id="v98" type="Taxi" route="cices_fann" depart="95.96402877697841" departSpeed="speedLimit"/>
<vehicle id="v678" type="Particulier" route="cices_fann" depart="96.51020408163265" departSpeed="speedLimit" personNumber="1"/>
<vehicle id="v4548" type="Particulier" route="citeKG_fann" depart="96.81749049429658" departSpeed="speedLimit" personNumber="1"/>
<vehicle id="v679" type="Particulier" route="cices_fann" depart="97.55976676384839" departSpeed="speedLimit" personNumber="2"/>
<vehicle id="v680" type="Particulier" route="cices_fann" depart="98.60932944606412" departSpeed="speedLimit" personNumber="2"/>
<vehicle id="v681" type="Particulier" route="cices_fann" depart="99.65889212827987" departSpeed="speedLimit" personNumber="1"/>
<vehicle id="v682" type="Particulier" route="cices_fann" depart="100.70845481049562" departSpeed="speedLimit" personNumber="2"/>
<vehicle id="v683" type="Particulier" route="cices_fann" depart="101.75801749271136" departSpeed="speedLimit" personNumber="1"/>
<vehicle id="v4088" type="Particulier" route="cices_citeKG" depart="101.8" departSpeed="speedLimit" personNumber="1"/>
<vehicle id="v684" type="Particulier" route="cices_fann" depart="102.8075801749271" departSpeed="speedLimit" personNumber="1"/>
<vehicle id="v685" type="Particulier" route="cices_fann" depart="103.85714285714285" departSpeed="speedLimit" personNumber="1"/>
<vehicle id="v4903" type="Particulier" route="fann_cices" depart="103.85714285714286" departSpeed="speedLimit" personNumber="1"/>
<vehicle id="v99" type="Taxi" route="cices_fann" depart="104.59712230215827" departSpeed="speedLimit"/>
<vehicle id="v686" type="Particulier" route="cices_fann" depart="104.9067055393586" departSpeed="speedLimit" personNumber="1"/>
<vehicle id="v687" type="Particulier" route="cices_fann" depart="105.95626822157433" departSpeed="speedLimit" personNumber="1"/>
<vehicle id="v4352" type="Particulier" route="cices_mermoz" depart="106.1094890510949" departSpeed="speedLimit" personNumber="2"/>
<vehicle id="v688" type="Particulier" route="cices_fann" depart="107.00583090379007" departSpeed="speedLimit" personNumber="1"/>
<vehicle id="v689" type="Particulier" route="cices_fann" depart="108.05539358600582" departSpeed="speedLimit" personNumber="2"/>
<vehicle id="v690" type="Particulier" route="cices_fann" depart="109.10495626822157" departSpeed="speedLimit" personNumber="1"/>
<vehicle id="v691" type="Particulier" route="cices_fann" depart="110.1545189504373" departSpeed="speedLimit" personNumber="1"/>
<vehicle id="v4549" type="Particulier" route="citeKG_fann" depart="110.50570342205323" departSpeed="speedLimit" personNumber="2"/>
<vehicle id="v692" type="Particulier" route="cices_fann" depart="111.20408163265304" departSpeed="speedLimit" personNumber="1"/>
<vehicle id="v693" type="Particulier" route="cices_fann" depart="112.2536443148688" departSpeed="speedLimit" personNumber="1"/>
<vehicle id="v100" type="Taxi" route="cices_fann" depart="113.23021582733813" departSpeed="speedLimit"/>
<vehicle id="v694" type="Particulier" route="cices_fann" depart="113.30320699708454" departSpeed="speedLimit" personNumber="1"/>
<vehicle id="v5304" type="Particulier" route="mermoz_citeKG" depart="113.5" departSpeed="speedLimit" personNumber="1"/>
<vehicle id="v5013" type="Particulier" route="fann_citeKG" depart="113.5" departSpeed="speedLimit" personNumber="1"/>
<vehicle id="v4510" type="Taxi" route="citeKG_fann" depart="113.5" departSpeed="speedLimit"/>
<vehicle id="v695" type="Particulier" route="cices_fann" depart="114.35276967930028" departSpeed="speedLimit" personNumber="2"/>
<vehicle id="v5127" type="Particulier" route="mermoz_cices" depart="114.92405063291139" departSpeed="speedLimit" personNumber="1"/>
<vehicle id="v696" type="Particulier" route="cices_fann" depart="115.40233236151602" departSpeed="speedLimit" personNumber="1"/>
<vehicle id="v4089" type="Particulier" route="cices_citeKG" depart="116.2" departSpeed="speedLimit" personNumber="2"/>
<vehicle id="v697" type="Particulier" route="cices_fann" depart="116.45189504373177" departSpeed="speedLimit" personNumber="1"/>
<vehicle id="v698" type="Particulier" route="cices_fann" depart="117.50145772594752" departSpeed="speedLimit" personNumber="2"/>
<vehicle id="v699" type="Particulier" route="cices_fann" depart="118.55102040816325" departSpeed="speedLimit" personNumber="2"/>
<vehicle id="v700" type="Particulier" route="cices_fann" depart="119.60058309037899" departSpeed="speedLimit" personNumber="1"/>
<vehicle id="v701" type="Particulier" route="cices_fann" depart="120.65014577259474" departSpeed="speedLimit" personNumber="1"/>
<vehicle id="v702" type="Particulier" route="cices_fann" depart="121.69970845481049" departSpeed="speedLimit" personNumber="1"/>
<vehicle id="v101" type="Taxi" route="cices_fann" depart="121.86330935251797" departSpeed="speedLimit"/>
<vehicle id="v703" type="Particulier" route="cices_fann" depart="122.74927113702623" departSpeed="speedLimit" personNumber="2"/>
<vehicle id="v704" type="Particulier" route="cices_fann" depart="123.79883381924196" departSpeed="speedLimit" personNumber="1"/>
<vehicle id="v4550" type="Particulier" route="citeKG_fann" depart="124.19391634980988" departSpeed="speedLimit" personNumber="2"/>
<vehicle id="v705" type="Particulier" route="cices_fann" depart="124.84839650145771" departSpeed="speedLimit" personNumber="1"/>
<vehicle id="v706" type="Particulier" route="cices_fann" depart="125.89795918367346" departSpeed="speedLimit" personNumber="1"/>
<vehicle id="v4" type="TATA" route="cices_fann" depart="126.58139534883722" departSpeed="speedLimit" personNumber="41">
	<stop busStop="busStop_1" duration="19" parking="false"/>
</vehicle>
<vehicle id="v707" type="Particulier" route="cices_fann" depart="126.9475218658892" departSpeed="speedLimit" personNumber="2"/>
<vehicle id="v708" type="Particulier" route="cices_fann" depart="127.99708454810494" departSpeed="speedLimit" personNumber="2"/>
<vehicle id="v709" type="Particulier" route="cices_fann" depart="129.04664723032067" departSpeed="speedLimit" personNumber="1"/>
<vehicle id="v710" type="Particulier" route="cices_fann" depart="130.09620991253644" departSpeed="speedLimit" personNumber="1"/>
<vehicle id="v102" type="Taxi" route="cices_fann" depart="130.49640287769785" departSpeed="speedLimit"/>